easyblock = 'Tarball'

name = 'LS-DYNA'
version = '14.0.0'

homepage = 'http://www.lstc.com/products/ls-dyna'
description = """LS-DYNA is a general-purpose finite element program capable of simulating complex real world problems. 
It is used by the automobile, aerospace, construction, military, manufacturing, and bioengineering industries. 
LS-DYNA is optimized for shared and distributed memory Unix, Linux, and Windows based, platforms, and it is fully 
QA'd by LSTC. The code's origins lie in highly nonlinear, transient dynamic finite element analysis using explicit 
time integration.
"""

toolchain = {'name': 'intel', 'version': '2022b'}

sources = [
    'ls-dyna_mpp_s_R14_0_0_x64_centos78_ifort190_avx2_intelmpi-2018_sharelib.tgz',
    'ls-dyna_mpp_d_R14_0_0_x64_centos78_ifort190_avx2_intelmpi-2018_sharelib.tgz',
    'ls-dyna_smp_s_R14_0_0_x64_centos79_ifort190.tgz',
    'ls-dyna_smp_d_R14_0_0_x64_centos79_ifort190.tgz',
]

postinstallcmds = [
    "chmod +x %(installdir)s/{ls-dyna_mpp_s_R14_0_0_x64_centos78_ifort190_avx2_intelmpi-2018_sharelib,ls-dyna_mpp_d_R14_0_0_x64_centos78_ifort190_avx2_intelmpi-2018_sharelib,ls-dyna_smp_s_R14_0_0_x64_centos79_ifort190,ls-dyna_smp_d_R14_0_0_x64_centos79_ifort190}",
    "ln -s ls-dyna_mpp_s_R14_0_0_x64_centos78_ifort190_avx2_intelmpi-2018_sharelib  %(installdir)s/mpp-dyna-s",
    "ln -s ls-dyna_mpp_d_R14_0_0_x64_centos78_ifort190_avx2_intelmpi-2018_sharelib  %(installdir)s/mpp-dyna-d",
    "ln -s ls-dyna_smp_s_R14_0_0_x64_centos79_ifort190 %(installdir)s/smp-dyna-s",
    "ln -s ls-dyna_smp_d_R14_0_0_x64_centos79_ifort190 %(installdir)s/smp-dyna-d",
]

sanity_check_paths = {
    'files': ['mpp-dyna-s', 'mpp-dyna-d', 'smp-dyna-s', 'smp-dyna-d', 'ls-dyna_mpp_s_R14_0_0_x64_centos78_ifort190_avx2_intelmpi-2018_sharelib', 'ls-dyna_mpp_d_R14_0_0_x64_centos78_ifort190_avx2_intelmpi-2018_sharelib', 'ls-dyna_smp_s_R14_0_0_x64_centos79_ifort190', 'ls-dyna_smp_d_R14_0_0_x64_centos79_ifort190'],
    'dirs': [],
}

modextrapaths = {'PATH': ''}

moduleclass = 'cae'
